# AS41828 (TELEMACH-HOSTING)
# Telemach d.o.o.
#
91.185.192.0/19
185.53.12.0/24
195.47.228.0/24
