# AS41828 (TELEMACH-HOSTING)
# Telemach Slovenija d.o.o
#
91.185.192.0/19
185.53.12.0/23
195.47.228.0/24
195.191.96.0/24
