# AS41828 (TELEMACH-HOSTING)
#
2a02:840::/32
