# AS41828 (TELEMACH-HOSTING)
# Telemach d.o.o.
#
2a02:840::/32
