# AS41828 (TELEMACH-HOSTING)
# Telemach Slovenija d.o.o.
#
