# AS41828 (TELEMACH-HOSTING)
# Telemach Slovenija d.o.o
#
2a01:b4a0:1000::/48
2a02:840::/32
