# AS3212 (TELEMACH)
# Telemach UG d.o.o.
#
31.15.128.0/17
46.150.32.0/19
46.182.224.0/21
77.38.0.0/17
77.73.104.0/22
77.111.0.0/18
78.153.32.0/19
82.149.0.0/19
82.192.32.0/19
84.20.224.0/19
84.52.128.0/18
86.58.0.0/17
87.119.128.0/19
91.132.208.0/22
91.237.132.0/22
92.63.16.0/20
94.140.64.0/19
176.57.92.0/22
176.76.0.0/16
178.79.64.0/18
185.30.136.0/22
185.66.148.0/22
185.72.60.0/22
185.79.228.0/22
185.85.148.0/22
185.97.68.0/22
193.9.19.0/24
193.111.220.0/22
194.152.0.0/19
212.85.160.0/19
213.143.64.0/19
213.161.0.0/19
213.172.224.0/19
217.72.64.0/19
