# AS3212 (TELEMACH)
# Telemach UG d.o.o.
#
