# AS3212 (TELEMACH)
#
2001:1688::/29
2a00:fc0::/32
2a00:13d8::/29
