# AS3212 (TELEMACH)
# Telemach Slovenija d.o.o
#
2001:1688::/29
2a00:fc0::/32
2a00:13d8::/29
2a05:acc0::/29
