# AS3212 (TELEMACH)
# Telemach UG d.o.o.
#
2001:1688::/29
2a00:fc0::/32
2a00:13d8::/29
