# AS42560 (BA-TELEMACH)
# Telemach BH d.o.o. Sarajevo
#
