# AS42560 (BA-TELEMACH)
# Telemach d.o.o. Sarajevo
#
