# AS42560 (BA-TELEMACH-AS)
# Telemach BH d.o.o. Sarajevo
#
