# AS264437 (TELEMAC-TELECOMUNICACOES)
# TELEMAC TELECOMUNICACOES LTDA
#
