# AS264437 (TELEMAC-TELECOMUNICACOES-LTDA)
# TELEMAC TELECOMUNICACOES LTDA
#
131.221.168.0/22
