# AS264437 (TELEMAC-TELECOMUNICACOES)
# TELEMAC TELECOMUNICACOES LTDA
#
131.221.168.0/22
