# AS264437 (TELEMAC-TELECOMUNICACOES-LTDA)
# TELEMAC TELECOMUNICACOES LTDA
#
