# AS264437 (TELEMAC-TELECOMUNICACOES)
# TELEMAC TELECOMUNICACOES LTDA
#
2804:1e94:3000::/36
