# AS264437 (TELEMAC-TELECOMUNICACOES)
# TELEMAC TELECOMUNICACOES LTDA
#
2804:1e94:1000::/36
2804:1e94:4000::/36
