# AS264437 (TELEMAC-TELECOMUNICACOES-LTDA)
# TELEMAC TELECOMUNICACOES LTDA
#
2804:1e94::/32
